clock {
	timezone PST+8PDT;
	starttime '2000-01-01 00:00:00';
	stoptime '2000-01-01 00:00:00';
};

#set minimum_timestep=60;
#set profiler=1;
#set relax_naming_rules=1;
module generators;
module tape;
module residential {
	implicit_enduses NONE;
};

module powerflow {
	solver_method NR;
	NR_iteration_limit 50;
};

object overhead_line_conductor {
	resistance 0.214101;
	name ACSR_477;
	geometric_mean_radius 0.026300;
};

object overhead_line_conductor {
	resistance 0.072701;
	name CLP_1500_33KV;
	geometric_mean_radius 0.044183;
};

object overhead_line_conductor {
	resistance 9.280701;
	name CU_N_#12;
	geometric_mean_radius 0.002623;
};

object overhead_line_conductor {
	resistance 0.138967;
	name CLP_750_33KV;
	geometric_mean_radius 0.031137;
};

object overhead_line_conductor {
	resistance 0.000000;
	name ACSR_LINNET_336_4_KCMIL;
	geometric_mean_radius 0.024400;
};

object overhead_line_conductor {
	resistance 14.595001;
	name CU_N_#14;
	geometric_mean_radius 0.002083;
};

object overhead_line_conductor {
	resistance 2.459000;
	name ACSR_#4;
	geometric_mean_radius 0.003300;
};

object overhead_line_conductor {
	resistance 0.312013;
	name CLP_350_5_12_16KV;
	geometric_mean_radius 0.021152;
};

object overhead_line_conductor {
	resistance 0.000000;
	name ACSR_#6;
	geometric_mean_radius 0.002400;
};

object overhead_line_conductor {
	resistance 1.583001;
	name ACSR_#2;
	geometric_mean_radius 0.004600;
};

object overhead_line_conductor {
	resistance 0.303039;
	name 336_TEST;
	geometric_mean_radius 0.024000;
};

object overhead_line_conductor {
	resistance 1.034000;
	name ACSR_1_0;
	geometric_mean_radius 0.007100;
};

object overhead_line_conductor {
	resistance 0.485579;
	name CLP_4_0_33KV;
	geometric_mean_radius 0.016171;
};

object overhead_line_conductor {
	resistance 0.975000;
	name CU_#2;
	geometric_mean_radius 0.008830;
};

object overhead_line_conductor {
	resistance 0.158100;
	name ACSR_653;
	geometric_mean_radius 0.030842;
};

object overhead_line_conductor {
	resistance 1.543374;
	name CLP_#2_5_12_16KV;
	geometric_mean_radius 0.008561;
};

object overhead_line_conductor {
	resistance 0.000000;
	name ACSR_PENGUIN_4_0_AWG;
	geometric_mean_radius 0.008140;
};

object overhead_line_conductor {
	resistance 0.770449;
	name CU_#1;
	geometric_mean_radius 0.009919;
};

object overhead_line_conductor {
	resistance 0.105560;
	name CLP_1000_12_16KV;
	geometric_mean_radius 0.035930;
};

object overhead_line_conductor {
	resistance 1.549999;
	name CU_#4;
	geometric_mean_radius 0.007000;
};

object overhead_line_conductor {
	resistance 3.840901;
	name CU_#8;
	geometric_mean_radius 0.004170;
};

object overhead_line_conductor {
	resistance 2.400000;
	name CW_6A_COPPERWELD;
	geometric_mean_radius 0.004790;
};

object overhead_line_conductor {
	resistance 2.417000;
	name CU_#6;
	geometric_mean_radius 0.005260;
};

object overhead_line_conductor {
	resistance 0.486600;
	name CU_2_0;
	geometric_mean_radius 0.012510;
};

object overhead_line_conductor {
	resistance 0.573000;
	name ACSR_4_0;
	geometric_mean_radius 0.010500;
};

object overhead_line_conductor {
	resistance 0.843000;
	name ACSR_2_0;
	geometric_mean_radius 0.007700;
};

object overhead_line_conductor {
	resistance 0.386980;
	name CU_3_0;
	geometric_mean_radius 0.014040;
};

object overhead_line_conductor {
	resistance 0.974947;
	name CLP_1_0_5_12_16KV;
	geometric_mean_radius 0.011433;
};

object overhead_line_conductor {
	resistance 0.306701;
	name CU_4_0;
	geometric_mean_radius 0.015770;
};

object overhead_line_conductor {
	resistance 0.613701;
	name CU_1_0;
	geometric_mean_radius 0.011140;
};

object overhead_line_conductor {
	resistance 0.302700;
	name ACSR_336;
	geometric_mean_radius 0.022100;
};

object overhead_line_conductor {
	resistance 0.000000;
	name NONE;
	geometric_mean_radius 0.028999;
};

object overhead_line_conductor {
	resistance 0.138967;
	name CLP_750_5_12_16KV;
	geometric_mean_radius 0.031137;
};

object overhead_line_conductor {
	resistance 0.196018;
	name DEFAULT;
	geometric_mean_radius 0.028999;
};

object overhead_line_conductor {
	resistance 0.108800;
	name ACSR_954;
	geometric_mean_radius 0.038083;
};

object overhead_line_conductor {
	resistance 2.010000;
	name AW_3C_7#6_ALUMOWELD;
	geometric_mean_radius 0.000018;
};

object overhead_line_conductor {
	resistance 3.820000;
	name CW_8A_COPPERWELD;
	geometric_mean_radius 0.003940;
};

object underground_line_conductor {
	name CLP_3C_#2_5_12_16KVcond;
	conductor_resistance 1.1096490000000001e+00;
	neutral_gmr 0.0208;
	outer_diameter 2.2193000000000001e+01;
	neutral_strands 10;
	neutral_resistance 14.872;
	neutral_diameter 0.0640837;
	conductor_diameter 2.7000000000000000e+01;
	conductor_gmr 9.0;
};

object underground_line_conductor {
	name CLP_3C_750_5_12_16KVcond;
	conductor_resistance 1.2452700000000000e-01;
	neutral_gmr 0.0208;
	outer_diameter 4.1878000000000000e+01;
	neutral_strands 10;
	neutral_resistance 14.872;
	neutral_diameter 0.0640837;
	conductor_diameter 2.7000000000000000e+01;
	conductor_gmr 9.0;
};

object underground_line_conductor {
	name DEFAULTcond;
	conductor_resistance 8.8234999999999994e-02;
	neutral_gmr 7.26433333333;
	outer_diameter 2.9792999999999999e+01;
	neutral_strands 7;
	neutral_resistance 14.872;
	neutral_diameter 2.1792999999999999e+01;
	conductor_diameter 2.7000000000000000e+01;
	conductor_gmr 9.0;
};

object underground_line_conductor {
	name CLP_3C_350_5_12_16KVcond;
	conductor_resistance 2.2119600000000000e-01;
	neutral_gmr 0.0208;
	outer_diameter 3.2225999999999999e+01;
	neutral_strands 10;
	neutral_resistance 14.872;
	neutral_diameter 0.0640837;
	conductor_diameter 2.7000000000000000e+01;
	conductor_gmr 9.0;
};

object underground_line_conductor {
	name BUScond;
	conductor_resistance 0.0000000000000000e+00;
	neutral_gmr 3.894638;
	outer_diameter 2.2193000000000001e+01;
	neutral_strands 7;
	neutral_resistance 14.872;
	neutral_diameter 1.1683914000000000e+01;
	conductor_diameter 2.7000000000000000e+01;
	conductor_gmr 9.0;
};

object underground_line_conductor {
	name CLP_3C_1000_5_12_16KVcond;
	conductor_resistance 9.5686999999999994e-02;
	neutral_gmr 0.0208;
	outer_diameter 4.6450000000000003e+01;
	neutral_strands 10;
	neutral_resistance 14.872;
	neutral_diameter 0.0640837;
	conductor_diameter 2.7000000000000000e+01;
	conductor_gmr 9.0;
};

object underground_line_conductor {
	name CLP_3C_1_0_5_12_16KVcond;
	conductor_resistance 7.0483700000000005e-01;
	neutral_gmr 0.0208;
	outer_diameter 2.4225000000000001e+01;
	neutral_strands 10;
	neutral_resistance 14.872;
	neutral_diameter 0.0640837;
	conductor_diameter 2.7000000000000000e+01;
	conductor_gmr 9.0;
};

object underground_line_conductor {
	name CLP_1C_1000_5_12_16KVcond;
	conductor_resistance 3.5327300000000000e-01;
	neutral_gmr 0.0208;
	outer_diameter 4.6450000000000003e+01;
	neutral_strands 10;
	neutral_resistance 14.872;
	neutral_diameter 0.0640837;
	conductor_diameter 2.7000000000000000e+01;
	conductor_gmr 9.0;
};

object underground_line_conductor {
	name CLP_1C_#2_5_12_16KVcond;
	conductor_resistance 1.2968740000000001e+00;
	neutral_gmr 0.0208;
	outer_diameter 2.2193000000000001e+01;
	neutral_strands 10;
	neutral_resistance 14.872;
	neutral_diameter 0.0640837;
	conductor_diameter 2.7000000000000000e+01;
	conductor_gmr 9.0;
};

object line_spacing {
	distance_AN 3.000000;
	name STANDARD_4Wohsps;
	distance_CN 6.330000;
	distance_BC 3.000000;
	distance_AB 6.330000;
	distance_BN 3.330000;
	distance_AC 9.330000;
};

object line_spacing {
	distance_AN 40.000000;
	name 3W_12_16KVohsps;
	distance_CN 41.073701;
	distance_BC 3.000000;
	distance_AB 6.330000;
	distance_BN 40.497764;
	distance_AC 9.330000;
};

object line_spacing {
	distance_AN 12.300000;
	name DEFAULTohsps;
	distance_CN 6.300000;
	distance_BC 9.300000;
	distance_AB 9.300000;
	distance_BN 3.000000;
	distance_AC 18.600000;
};

object line_spacing {
	distance_AN 3.000000;
	name STANDARD_3W_1Nohsps;
	distance_CN 6.330000;
	distance_BC 3.000000;
	distance_AB 6.330000;
	distance_BN 3.330000;
	distance_AC 9.330000;
};

object line_spacing {
	distance_AN 3.000000;
	name 3W_1N_12_16KVohsps;
	distance_CN 6.330000;
	distance_BC 3.000000;
	distance_AB 6.330000;
	distance_BN 3.330000;
	distance_AC 9.330000;
};

object line_spacing {
	distance_AN 40.000000;
	name STANDARD_3Wohsps;
	distance_CN 41.073701;
	distance_BC 3.000000;
	distance_AB 6.330000;
	distance_BN 40.497764;
	distance_AC 9.330000;
};

object line_configuration {
	name DEFAULTconf;
	spacing DEFAULTohsps;
	conductor_N ACSR_#6;
	conductor_A ACSR_#6;
	conductor_C ACSR_#6;
	conductor_B ACSR_#6;
};

object line_configuration {
	name CU_3C_1_0conf;
	spacing STANDARD_3Wohsps;
	conductor_N NONE;
	conductor_A CU_1_0;
	conductor_C CU_1_0;
	conductor_B CU_1_0;
};

object line_spacing {
	distance_BC 0.5;
	name CLP_3C_350_5_12_16KVsps;
	distance_AB 0.05;
	distance_AC 1.0;
};

object line_spacing {
	distance_BC 0.5;
	name CLP_1C_1000_5_12_16KVsps;
	distance_AB 0.05;
	distance_AC 1.0;
};

object line_spacing {
	distance_BC 0.5;
	name CLP_3C_1_0_5_12_16KVsps;
	distance_AB 0.05;
	distance_AC 1.0;
};

object line_spacing {
	distance_BC 0.5;
	name DEFAULTsps;
	distance_AB 0.05;
	distance_AC 1.0;
};

object line_spacing {
	distance_BC 0.5;
	name CLP_1C_#2_5_12_16KVsps;
	distance_AB 0.05;
	distance_AC 1.0;
};

object line_spacing {
	distance_BC 0.5;
	name CLP_3C_#2_5_12_16KVsps;
	distance_AB 0.05;
	distance_AC 1.0;
};

object line_spacing {
	distance_BC 0.5;
	name CLP_3C_750_5_12_16KVsps;
	distance_AB 0.05;
	distance_AC 1.0;
};

object line_spacing {
	distance_BC 0.5;
	name BUSsps;
	distance_AB 0.05;
	distance_AC 1.0;
};

object line_spacing {
	distance_BC 0.5;
	name CLP_3C_1000_5_12_16KVsps;
	distance_AB 0.05;
	distance_AC 1.0;
};

object line_configuration {
	name CLP_3C_750_5_12_16KVphABC;
	spacing CLP_3C_750_5_12_16KVsps;
	conductor_A CLP_3C_750_5_12_16KVcond;
	conductor_C CLP_3C_750_5_12_16KVcond;
	conductor_B CLP_3C_750_5_12_16KVcond;
};

object line_configuration {
	spacing CLP_1C_#2_5_12_16KVsps;
	conductor_A CLP_1C_#2_5_12_16KVcond;
	name CLP_1C_#2_5_12_16KVphA;
};

object line_configuration {
	name CLP_3C_#2_5_12_16KVphABC;
	spacing CLP_3C_#2_5_12_16KVsps;
	conductor_A CLP_3C_#2_5_12_16KVcond;
	conductor_C CLP_3C_#2_5_12_16KVcond;
	conductor_B CLP_3C_#2_5_12_16KVcond;
};

object line_configuration {
	name DEFAULTphABC;
	spacing DEFAULTsps;
	conductor_A DEFAULTcond;
	conductor_C DEFAULTcond;
	conductor_B DEFAULTcond;
};

object line_configuration {
	name BUSphABC;
	spacing BUSsps;
	conductor_A BUScond;
	conductor_C BUScond;
	conductor_B BUScond;
};

object line_configuration {
	name CLP_3C_1000_5_12_16KVphABC;
	spacing CLP_3C_1000_5_12_16KVsps;
	conductor_A CLP_3C_1000_5_12_16KVcond;
	conductor_C CLP_3C_1000_5_12_16KVcond;
	conductor_B CLP_3C_1000_5_12_16KVcond;
};

object line_configuration {
	spacing CLP_1C_1000_5_12_16KVsps;
	conductor_A CLP_1C_1000_5_12_16KVcond;
	name CLP_1C_1000_5_12_16KVphA;
};

object line_configuration {
	name CLP_3C_1_0_5_12_16KVphABC;
	spacing CLP_3C_1_0_5_12_16KVsps;
	conductor_A CLP_3C_1_0_5_12_16KVcond;
	conductor_C CLP_3C_1_0_5_12_16KVcond;
	conductor_B CLP_3C_1_0_5_12_16KVcond;
};

object line_configuration {
	name CLP_3C_350_5_12_16KVphABC;
	spacing CLP_3C_350_5_12_16KVsps;
	conductor_A CLP_3C_350_5_12_16KVcond;
	conductor_C CLP_3C_350_5_12_16KVcond;
	conductor_B CLP_3C_350_5_12_16KVcond;
};

object transformer_configuration {
	powerC_rating 5000;
	name SPCTconfigP5398623C;
	primary_voltage 7199.55785679;
	install_type POLETOP;
	secondary_voltage 120;
	connect_type SINGLE_PHASE_CENTER_TAPPED;
	impedance 0.00033+0.0022j;
	power_rating 5000;
};

object transformer_configuration {
	name SPCTconfigP5398623B;
	primary_voltage 7199.55785679;
	install_type POLETOP;
	secondary_voltage 120;
	connect_type SINGLE_PHASE_CENTER_TAPPED;
	impedance 0.00033+0.0022j;
	powerB_rating 5000;
	power_rating 5000;
};

object transformer_configuration {
	name SPCTconfigP5398623A;
	primary_voltage 7199.55785679;
	install_type POLETOP;
	secondary_voltage 120;
	connect_type SINGLE_PHASE_CENTER_TAPPED;
	impedance 0.00033+0.0022j;
	powerA_rating 5000;
	power_rating 5000;
};

object transformer_configuration {
	name SPCTconfigP5379641A;
	primary_voltage 7199.55785679;
	install_type POLETOP;
	secondary_voltage 120;
	connect_type SINGLE_PHASE_CENTER_TAPPED;
	impedance 0.00033+0.0022j;
	powerA_rating 5000;
	power_rating 5000;
};

object transformer_configuration {
	name SPCTconfigP5379641B;
	primary_voltage 7199.55785679;
	install_type POLETOP;
	secondary_voltage 120;
	connect_type SINGLE_PHASE_CENTER_TAPPED;
	impedance 0.00033+0.0022j;
	powerB_rating 5000;
	power_rating 5000;
};

object transformer_configuration {
	powerC_rating 5000;
	name SPCTconfigP5379641C;
	primary_voltage 7199.55785679;
	install_type POLETOP;
	secondary_voltage 120;
	connect_type SINGLE_PHASE_CENTER_TAPPED;
	impedance 0.00033+0.0022j;
	power_rating 5000;
};

object transformer_configuration {
	name SPCTconfigP5301146A;
	primary_voltage 7199.55785679;
	install_type POLETOP;
	secondary_voltage 120;
	connect_type SINGLE_PHASE_CENTER_TAPPED;
	impedance 0.00033+0.0022j;
	powerA_rating 5000;
	power_rating 5000;
};

object transformer_configuration {
	name SPCTconfigP5506374B;
	primary_voltage 7199.55785679;
	install_type POLETOP;
	secondary_voltage 120;
	connect_type SINGLE_PHASE_CENTER_TAPPED;
	impedance 0.00033+0.0022j;
	powerB_rating 5000;
	power_rating 5000;
};

object transformer_configuration {
	name SPCTconfigP5075203A;
	primary_voltage 7199.55785679;
	install_type POLETOP;
	secondary_voltage 120;
	connect_type SINGLE_PHASE_CENTER_TAPPED;
	impedance 0.00033+0.0022j;
	powerA_rating 5000;
	power_rating 5000;
};

object transformer_configuration {
	powerC_rating 5000;
	name SPCTconfigP5075203C;
	primary_voltage 7199.55785679;
	install_type POLETOP;
	secondary_voltage 120;
	connect_type SINGLE_PHASE_CENTER_TAPPED;
	impedance 0.00033+0.0022j;
	power_rating 5000;
};

object transformer_configuration {
	name SPCTconfigP5412515B;
	primary_voltage 7199.55785679;
	install_type POLETOP;
	secondary_voltage 120;
	connect_type SINGLE_PHASE_CENTER_TAPPED;
	impedance 0.00033+0.0022j;
	powerB_rating 5000;
	power_rating 5000;
};

object transformer_configuration {
	powerC_rating 5000;
	name SPCTconfigP5301146C;
	primary_voltage 7199.55785679;
	install_type POLETOP;
	secondary_voltage 120;
	connect_type SINGLE_PHASE_CENTER_TAPPED;
	impedance 0.00033+0.0022j;
	power_rating 5000;
};

object transformer_configuration {
	name SPCTconfigP5435787B;
	primary_voltage 7199.55785679;
	install_type POLETOP;
	secondary_voltage 120;
	connect_type SINGLE_PHASE_CENTER_TAPPED;
	impedance 0.00033+0.0022j;
	powerB_rating 5000;
	power_rating 5000;
};

object transformer_configuration {
	powerC_rating 5000;
	name SPCTconfigP5435787C;
	primary_voltage 7199.55785679;
	install_type POLETOP;
	secondary_voltage 120;
	connect_type SINGLE_PHASE_CENTER_TAPPED;
	impedance 0.00033+0.0022j;
	power_rating 5000;
};

object transformer_configuration {
	name SPCTconfigP5301146B;
	primary_voltage 7199.55785679;
	install_type POLETOP;
	secondary_voltage 120;
	connect_type SINGLE_PHASE_CENTER_TAPPED;
	impedance 0.00033+0.0022j;
	powerB_rating 5000;
	power_rating 5000;
};

object transformer_configuration {
	powerC_rating 5000;
	name SPCTconfigV5079055C;
	primary_voltage 7199.55785679;
	install_type POLETOP;
	secondary_voltage 120;
	connect_type SINGLE_PHASE_CENTER_TAPPED;
	impedance 0.00033+0.0022j;
	power_rating 5000;
};

object transformer_configuration {
	powerC_rating 5000;
	name SPCTconfigP5161347C;
	primary_voltage 7199.55785679;
	install_type POLETOP;
	secondary_voltage 120;
	connect_type SINGLE_PHASE_CENTER_TAPPED;
	impedance 0.00033+0.0022j;
	power_rating 5000;
};

object transformer_configuration {
	name SPCTconfigP5435787A;
	primary_voltage 7199.55785679;
	install_type POLETOP;
	secondary_voltage 120;
	connect_type SINGLE_PHASE_CENTER_TAPPED;
	impedance 0.00033+0.0022j;
	powerA_rating 5000;
	power_rating 5000;
};

object transformer_configuration {
	name SPCTconfigP5161347A;
	primary_voltage 7199.55785679;
	install_type POLETOP;
	secondary_voltage 120;
	connect_type SINGLE_PHASE_CENTER_TAPPED;
	impedance 0.00033+0.0022j;
	powerA_rating 5000;
	power_rating 5000;
};

object transformer_configuration {
	name SPCTconfigP5301145A;
	primary_voltage 7199.55785679;
	install_type POLETOP;
	secondary_voltage 120;
	connect_type SINGLE_PHASE_CENTER_TAPPED;
	impedance 0.00033+0.0022j;
	powerA_rating 5000;
	power_rating 5000;
};

object transformer_configuration {
	name SPCTconfigP5301145B;
	primary_voltage 7199.55785679;
	install_type POLETOP;
	secondary_voltage 120;
	connect_type SINGLE_PHASE_CENTER_TAPPED;
	impedance 0.00033+0.0022j;
	powerB_rating 5000;
	power_rating 5000;
};

object transformer_configuration {
	powerC_rating 5000;
	name SPCTconfigP5301145C;
	primary_voltage 7199.55785679;
	install_type POLETOP;
	secondary_voltage 120;
	connect_type SINGLE_PHASE_CENTER_TAPPED;
	impedance 0.00033+0.0022j;
	power_rating 5000;
};

object transformer_configuration {
	name SPCTconfigP5312090A;
	primary_voltage 7199.55785679;
	install_type POLETOP;
	secondary_voltage 120;
	connect_type SINGLE_PHASE_CENTER_TAPPED;
	impedance 0.00033+0.0022j;
	powerA_rating 5000;
	power_rating 5000;
};

object transformer_configuration {
	powerC_rating 5000;
	name SPCTconfigP5312090C;
	primary_voltage 7199.55785679;
	install_type POLETOP;
	secondary_voltage 120;
	connect_type SINGLE_PHASE_CENTER_TAPPED;
	impedance 0.00033+0.0022j;
	power_rating 5000;
};

object transformer_configuration {
	name SPCTconfigP5312090B;
	primary_voltage 7199.55785679;
	install_type POLETOP;
	secondary_voltage 120;
	connect_type SINGLE_PHASE_CENTER_TAPPED;
	impedance 0.00033+0.0022j;
	powerB_rating 5000;
	power_rating 5000;
};

object transformer_configuration {
	name SPCTconfigV5161137T1B;
	primary_voltage 7199.55785679;
	install_type POLETOP;
	secondary_voltage 120;
	connect_type SINGLE_PHASE_CENTER_TAPPED;
	impedance 0.00033+0.0022j;
	powerB_rating 2000;
	power_rating 2000;
};

object transformer_configuration {
	powerC_rating 2000;
	name SPCTconfigV5161137T1C;
	primary_voltage 7199.55785679;
	install_type POLETOP;
	secondary_voltage 120;
	connect_type SINGLE_PHASE_CENTER_TAPPED;
	impedance 0.00033+0.0022j;
	power_rating 2000;
};

object transformer_configuration {
	name SPCTconfigP5161347B;
	primary_voltage 7199.55785679;
	install_type POLETOP;
	secondary_voltage 120;
	connect_type SINGLE_PHASE_CENTER_TAPPED;
	impedance 0.00033+0.0022j;
	powerB_rating 5000;
	power_rating 5000;
};

object transformer_configuration {
	name SPCTconfigV5161137T1A;
	primary_voltage 7199.55785679;
	install_type POLETOP;
	secondary_voltage 120;
	connect_type SINGLE_PHASE_CENTER_TAPPED;
	impedance 0.00033+0.0022j;
	powerA_rating 2000;
	power_rating 2000;
};

object transformer_configuration {
	name SPCTconfigP5336835B;
	primary_voltage 7199.55785679;
	install_type POLETOP;
	secondary_voltage 120;
	connect_type SINGLE_PHASE_CENTER_TAPPED;
	impedance 0.00033+0.0022j;
	powerB_rating 5000;
	power_rating 5000;
};

object transformer_configuration {
	powerC_rating 5000;
	name SPCTconfigP5336835C;
	primary_voltage 7199.55785679;
	install_type POLETOP;
	secondary_voltage 120;
	connect_type SINGLE_PHASE_CENTER_TAPPED;
	impedance 0.00033+0.0022j;
	power_rating 5000;
};

object transformer_configuration {
	name SPCTconfigP5336835A;
	primary_voltage 7199.55785679;
	install_type POLETOP;
	secondary_voltage 120;
	connect_type SINGLE_PHASE_CENTER_TAPPED;
	impedance 0.00033+0.0022j;
	powerA_rating 5000;
	power_rating 5000;
};

object transformer_configuration {
	name SPCTconfigB5301147A;
	primary_voltage 7199.55785679;
	install_type POLETOP;
	secondary_voltage 120;
	connect_type SINGLE_PHASE_CENTER_TAPPED;
	impedance 0.00033+0.0022j;
	powerA_rating 3000;
	power_rating 3000;
};

object transformer_configuration {
	name SPCTconfigP5398622A;
	primary_voltage 7199.55785679;
	install_type POLETOP;
	secondary_voltage 120;
	connect_type SINGLE_PHASE_CENTER_TAPPED;
	impedance 0.00033+0.0022j;
	powerA_rating 5000;
	power_rating 5000;
};

object transformer_configuration {
	name SPCTconfigP5398622B;
	primary_voltage 7199.55785679;
	install_type POLETOP;
	secondary_voltage 120;
	connect_type SINGLE_PHASE_CENTER_TAPPED;
	impedance 0.00033+0.0022j;
	powerB_rating 5000;
	power_rating 5000;
};

object transformer_configuration {
	powerC_rating 5000;
	name SPCTconfigP5398622C;
	primary_voltage 7199.55785679;
	install_type POLETOP;
	secondary_voltage 120;
	connect_type SINGLE_PHASE_CENTER_TAPPED;
	impedance 0.00033+0.0022j;
	power_rating 5000;
};

object transformer_configuration {
	powerC_rating 5000;
	name SPCTconfigP5435106C;
	primary_voltage 7199.55785679;
	install_type POLETOP;
	secondary_voltage 120;
	connect_type SINGLE_PHASE_CENTER_TAPPED;
	impedance 0.00033+0.0022j;
	power_rating 5000;
};

object transformer_configuration {
	name SPCTconfigP5435106B;
	primary_voltage 7199.55785679;
	install_type POLETOP;
	secondary_voltage 120;
	connect_type SINGLE_PHASE_CENTER_TAPPED;
	impedance 0.00033+0.0022j;
	powerB_rating 5000;
	power_rating 5000;
};

object transformer_configuration {
	name SPCTconfigP5435106A;
	primary_voltage 7199.55785679;
	install_type POLETOP;
	secondary_voltage 120;
	connect_type SINGLE_PHASE_CENTER_TAPPED;
	impedance 0.00033+0.0022j;
	powerA_rating 5000;
	power_rating 5000;
};

object transformer_configuration {
	name SPCTconfigV5079055A;
	primary_voltage 7199.55785679;
	install_type POLETOP;
	secondary_voltage 120;
	connect_type SINGLE_PHASE_CENTER_TAPPED;
	impedance 0.00033+0.0022j;
	powerA_rating 5000;
	power_rating 5000;
};

object transformer_configuration {
	name SPCTconfigP5161135A;
	primary_voltage 7199.55785679;
	install_type POLETOP;
	secondary_voltage 120;
	connect_type SINGLE_PHASE_CENTER_TAPPED;
	impedance 0.00033+0.0022j;
	powerA_rating 1000;
	power_rating 1000;
};

object transformer_configuration {
	powerC_rating 1000;
	name SPCTconfigP5161135C;
	primary_voltage 7199.55785679;
	install_type POLETOP;
	secondary_voltage 120;
	connect_type SINGLE_PHASE_CENTER_TAPPED;
	impedance 0.00033+0.0022j;
	power_rating 1000;
};

object transformer_configuration {
	name SPCTconfigP5365275A;
	primary_voltage 7199.55785679;
	install_type POLETOP;
	secondary_voltage 120;
	connect_type SINGLE_PHASE_CENTER_TAPPED;
	impedance 0.00033+0.0022j;
	powerA_rating 5000;
	power_rating 5000;
};

object transformer_configuration {
	name SPCTconfigP5365275B;
	primary_voltage 7199.55785679;
	install_type POLETOP;
	secondary_voltage 120;
	connect_type SINGLE_PHASE_CENTER_TAPPED;
	impedance 0.00033+0.0022j;
	powerB_rating 5000;
	power_rating 5000;
};

object transformer_configuration {
	powerC_rating 5000;
	name SPCTconfigP5365275C;
	primary_voltage 7199.55785679;
	install_type POLETOP;
	secondary_voltage 120;
	connect_type SINGLE_PHASE_CENTER_TAPPED;
	impedance 0.00033+0.0022j;
	power_rating 5000;
};

object transformer_configuration {
	name SPCTconfigV5079055B;
	primary_voltage 7199.55785679;
	install_type POLETOP;
	secondary_voltage 120;
	connect_type SINGLE_PHASE_CENTER_TAPPED;
	impedance 0.00033+0.0022j;
	powerB_rating 5000;
	power_rating 5000;
};

object transformer_configuration {
	name SPCTconfigP5075203B;
	primary_voltage 7199.55785679;
	install_type POLETOP;
	secondary_voltage 120;
	connect_type SINGLE_PHASE_CENTER_TAPPED;
	impedance 0.00033+0.0022j;
	powerB_rating 5000;
	power_rating 5000;
};

object transformer_configuration {
	name SPCTconfigV5071124A;
	primary_voltage 7199.55785679;
	install_type POLETOP;
	secondary_voltage 120;
	connect_type SINGLE_PHASE_CENTER_TAPPED;
	impedance 0.00033+0.0022j;
	powerA_rating 5000;
	power_rating 5000;
};

object transformer_configuration {
	powerC_rating 5000;
	name SPCTconfigP5412515C;
	primary_voltage 7199.55785679;
	install_type POLETOP;
	secondary_voltage 120;
	connect_type SINGLE_PHASE_CENTER_TAPPED;
	impedance 0.00033+0.0022j;
	power_rating 5000;
};

object transformer_configuration {
	name SPCTconfigP5412515A;
	primary_voltage 7199.55785679;
	install_type POLETOP;
	secondary_voltage 120;
	connect_type SINGLE_PHASE_CENTER_TAPPED;
	impedance 0.00033+0.0022j;
	powerA_rating 5000;
	power_rating 5000;
};

object transformer_configuration {
	powerC_rating 5000;
	name SPCTconfigJ052A_2PTC;
	primary_voltage 7199.55785679;
	install_type POLETOP;
	secondary_voltage 120;
	connect_type SINGLE_PHASE_CENTER_TAPPED;
	impedance 0.00033+0.0022j;
	power_rating 5000;
};

object transformer_configuration {
	name SPCTconfigJ052A_2PTB;
	primary_voltage 7199.55785679;
	install_type POLETOP;
	secondary_voltage 120;
	connect_type SINGLE_PHASE_CENTER_TAPPED;
	impedance 0.00033+0.0022j;
	powerB_rating 5000;
	power_rating 5000;
};

object transformer_configuration {
	name SPCTconfigJ052A_2PTA;
	primary_voltage 7199.55785679;
	install_type POLETOP;
	secondary_voltage 120;
	connect_type SINGLE_PHASE_CENTER_TAPPED;
	impedance 0.00033+0.0022j;
	powerA_rating 5000;
	power_rating 5000;
};

object transformer_configuration {
	powerC_rating 5000;
	name SPCTconfigP5506374C;
	primary_voltage 7199.55785679;
	install_type POLETOP;
	secondary_voltage 120;
	connect_type SINGLE_PHASE_CENTER_TAPPED;
	impedance 0.00033+0.0022j;
	power_rating 5000;
};

object transformer_configuration {
	name SPCTconfigP5130856A;
	primary_voltage 7199.55785679;
	install_type POLETOP;
	secondary_voltage 120;
	connect_type SINGLE_PHASE_CENTER_TAPPED;
	impedance 0.00033+0.0022j;
	powerA_rating 5000;
	power_rating 5000;
};

object transformer_configuration {
	powerC_rating 5000;
	name SPCTconfigP5130856C;
	primary_voltage 7199.55785679;
	install_type POLETOP;
	secondary_voltage 120;
	connect_type SINGLE_PHASE_CENTER_TAPPED;
	impedance 0.00033+0.0022j;
	power_rating 5000;
};

object transformer_configuration {
	name SPCTconfigP5130856B;
	primary_voltage 7199.55785679;
	install_type POLETOP;
	secondary_voltage 120;
	connect_type SINGLE_PHASE_CENTER_TAPPED;
	impedance 0.00033+0.0022j;
	powerB_rating 5000;
	power_rating 5000;
};

object transformer_configuration {
	name SPCTconfigP5506374A;
	primary_voltage 7199.55785679;
	install_type POLETOP;
	secondary_voltage 120;
	connect_type SINGLE_PHASE_CENTER_TAPPED;
	impedance 0.00033+0.0022j;
	powerA_rating 5000;
	power_rating 5000;
};

object transformer_configuration {
	powerC_rating 5000;
	name SPCTconfigP5510319C;
	primary_voltage 7199.55785679;
	install_type POLETOP;
	secondary_voltage 120;
	connect_type SINGLE_PHASE_CENTER_TAPPED;
	impedance 0.00033+0.0022j;
	power_rating 5000;
};

object transformer_configuration {
	name SPCTconfigP5510319B;
	primary_voltage 7199.55785679;
	install_type POLETOP;
	secondary_voltage 120;
	connect_type SINGLE_PHASE_CENTER_TAPPED;
	impedance 0.00033+0.0022j;
	powerB_rating 5000;
	power_rating 5000;
};

object transformer_configuration {
	name SPCTconfigP5510319A;
	primary_voltage 7199.55785679;
	install_type POLETOP;
	secondary_voltage 120;
	connect_type SINGLE_PHASE_CENTER_TAPPED;
	impedance 0.00033+0.0022j;
	powerA_rating 5000;
	power_rating 5000;
};

object transformer_configuration {
	powerC_rating 5000;
	name SPCTconfigP5312089C;
	primary_voltage 7199.55785679;
	install_type POLETOP;
	secondary_voltage 120;
	connect_type SINGLE_PHASE_CENTER_TAPPED;
	impedance 0.00033+0.0022j;
	power_rating 5000;
};

object transformer_configuration {
	name SPCTconfigP5312089B;
	primary_voltage 7199.55785679;
	install_type POLETOP;
	secondary_voltage 120;
	connect_type SINGLE_PHASE_CENTER_TAPPED;
	impedance 0.00033+0.0022j;
	powerB_rating 5000;
	power_rating 5000;
};

object transformer_configuration {
	name SPCTconfigP5312089A;
	primary_voltage 7199.55785679;
	install_type POLETOP;
	secondary_voltage 120;
	connect_type SINGLE_PHASE_CENTER_TAPPED;
	impedance 0.00033+0.0022j;
	powerA_rating 5000;
	power_rating 5000;
};

object transformer_configuration {
	name SPCTconfigP5161135B;
	primary_voltage 7199.55785679;
	install_type POLETOP;
	secondary_voltage 120;
	connect_type SINGLE_PHASE_CENTER_TAPPED;
	impedance 0.00033+0.0022j;
	powerB_rating 1000;
	power_rating 1000;
};

object meter {
	phases ABCN;
	name n09808;
	bustype SWING;
	nominal_voltage 7199.55785679;
};

object node {
	phases ABCN;
	name n27262176_09808;
	nominal_voltage 7199.55785679;
};

object node {
	phases ABCN;
	name nJ052A_1P_09808;
	nominal_voltage 7199.55785679;
};

object node {
	phases ABCN;
	name nJ637A_2_F_09808;
	nominal_voltage 7199.55785679;
};

object node {
	phases ABCN;
	name nJ141A_2P_09808;
	nominal_voltage 7199.55785679;
};

object node {
	phases ABCN;
	name nP5336835_1_T_09808;
	nominal_voltage 7199.55785679;
};

object node {
	phases ABCN;
	name nND27301292_09808;
	nominal_voltage 7199.55785679;
};

object node {
	phases ABCN;
	name nP5398622_A_09808;
	nominal_voltage 7199.55785679;
};

object node {
	phases ABCN;
	name nP5510319_1_T_09808;
	nominal_voltage 7199.55785679;
};

object node {
	phases ABCN;
	name n27258606_09808;
	nominal_voltage 7199.55785679;
};

object node {
	phases ABCN;
	name n27261124_09808;
	nominal_voltage 7199.55785679;
};

object node {
	phases ABCN;
	name n164885506_09808;
	nominal_voltage 7199.55785679;
};

object node {
	phases ABCN;
	name nJ052A_2_F_09808;
	nominal_voltage 7199.55785679;
};

object node {
	phases ABCN;
	name nP5130856_1_09808;
	nominal_voltage 7199.55785679;
};

object node {
	phases ABCN;
	name nP5379641_1_T_09808;
	nominal_voltage 7199.55785679;
};

object node {
	phases ABCN;
	name n95856923_09808_1;
	nominal_voltage 7199.55785679;
};

object node {
	phases ABCN;
	name nJ052A_3P_09808;
	nominal_voltage 7199.55785679;
};

object node {
	phases ABCN;
	name nP5398622_B_T_09808;
	nominal_voltage 7199.55785679;
};

object node {
	phases ABCN;
	name n27258622_09808;
	nominal_voltage 7199.55785679;
};

object node {
	phases ABCN;
	name nGS0491_1_09808_1;
	nominal_voltage 7199.55785679;
};

object node {
	phases ABCN;
	name n27261290_09808;
	nominal_voltage 7199.55785679;
};

object node {
	phases AN;
	name nV5071124_09808;
	nominal_voltage 7199.55785679;
};

object node {
	phases ABCN;